20170915-110054 models/libs/c_coupler 0f214348abc625459efca68e47ad4b6a44c21f10 http://develop.c-coupler.org/c-coupler-development-group/c-coupler-lib.git
20170915-102221 models/libs/c_coupler 85dc53680e3aa40dd78345935c3300f122a10e7d http://develop.c-coupler.org/c-coupler-development-group/c-coupler-lib.git
20150702-154004 models/libs/c_coupler 4d40e93b66965b3b8852214d06ad864396089213 http://develop.c-coupler.org/c-coupler-development-group/c-coupler-lib.git
20150623-144251 scripts b1beb3aaf970a890b9e755be540000733a5d7e90 http://develop.c-coupler.org/c-coupler-development-group/platform-scripts.git
20150616-145154 models/atm_chem/GIGC/Code.v9-02 a7622ff995773c70fb5fbe74276617c034699cd2 git://git.as.harvard.edu/bmy/GEOS-Chem
20150616-145154 models/libs/c_coupler 82dfdeb426e500157a86285e4900f19beef0e621 http://develop.c-coupler.org/c-coupler-development-group/c-coupler-lib.git
20150616-145154 models/libs/shr 1bc1621b543439506f161575cac45d31ff161fb6 http://develop.c-coupler.org/c-coupler-development-group/shared-lib.git
20150616-145154 scripts 42c9fe7f0b19f2130c7b15a72e75a5ef4f27e23d http://develop.c-coupler.org/c-coupler-development-group/platform-scripts.git
20150616-145154 config 679438b52829b2c6c4a82766d42d598ec7edf3bf http://develop.c-coupler.org/c-coupler-development-group/platform-config.git
